Version 4
SHEET 1 880 680
WIRE 144 112 48 112
WIRE 368 128 240 128
WIRE 144 144 16 144
SYMBOL vsource 48 48 R180
WINDOW 3 48 -16 Left 0
WINDOW 0 48 16 Left 0
WINDOW 123 0 0 Left 0
WINDOW 39 0 0 Left 0
SYMATTR Value 5
SYMATTR InstName V1
SYMBOL vsource -48 144 R90
WINDOW 3 32 0 VTop 2
WINDOW 0 -32 0 VBottom 2
WINDOW 123 0 0 Left 0
WINDOW 39 0 0 Left 0
SYMATTR Value 5
SYMATTR InstName V2
SYMBOL cktsym\\gnd 368 128 R0
SYMATTR InstName U1
SYMBOL cktsym\\gnd -112 144 R90
SYMATTR InstName U3
SYMBOL cktsym\\gnd 48 -16 R180
SYMATTR InstName U4
SYMBOL AND-gate 192 128 R0
SYMATTR InstName X2
TEXT -152 208 Left 2 !.tran 20us
TEXT 248 240 Left 2 !.include engr2420.sub
