Version 4
SHEET 1 880 680
FLAG 80 144 A
FLAG 80 176 B
FLAG 80 208 C
FLAG 336 160 S
FLAG 336 192 Cout
FLAG -128 -48 A
FLAG -32 -48 B
FLAG 64 -48 C
SYMBOL 1bit-Adder 208 176 R0
SYMATTR InstName X1
SYMBOL cktsym\\vsource -224 16 R0
SYMATTR Value 5
SYMATTR InstName Vdd
SYMBOL cktsym\\vsource -128 16 R0
SYMATTR Value 5
SYMATTR InstName A
SYMBOL cktsym\\vsource -32 16 R0
SYMATTR Value 5
SYMATTR InstName B
SYMBOL cktsym\\vsource 64 16 R0
SYMATTR Value 0
SYMATTR InstName C
SYMBOL cktsym\\gnd -224 80 R0
SYMATTR InstName U1
SYMBOL cktsym\\gnd -128 80 R0
SYMATTR InstName U2
SYMBOL cktsym\\gnd -32 80 R0
SYMATTR InstName U3
SYMBOL cktsym\\gnd 64 80 R0
SYMATTR InstName U4
SYMBOL cktsym\\vdd -224 -48 R0
SYMATTR InstName U5
TEXT -258 270 Left 2 !.tran 20u
TEXT -264 304 Left 2 !.include engr2420.sub
