Version 4
SHEET 1 888 680
WIRE 32 48 -80 48
WIRE 336 48 240 48
WIRE -80 80 -80 48
WIRE -80 80 -112 80
WIRE 240 80 240 48
WIRE 240 80 176 80
WIRE 560 80 480 80
WIRE -16 112 -112 112
WIRE 32 112 -16 112
WIRE 336 112 304 112
WIRE 304 160 304 112
WIRE 304 160 -112 160
WIRE 304 224 304 160
WIRE 368 224 304 224
WIRE 560 256 528 256
WIRE 240 288 240 80
WIRE 368 288 240 288
WIRE 560 304 560 256
WIRE 592 304 560 304
WIRE 800 336 720 336
WIRE 592 368 560 368
WIRE -16 384 -16 112
WIRE 368 384 -16 384
WIRE 560 416 560 368
WIRE 560 416 528 416
WIRE -80 448 -80 80
WIRE 368 448 -80 448
FLAG 560 80 S
FLAG 800 336 Cout
FLAG -112 80 A1
FLAG -112 112 B1
FLAG -112 160 Cin
SYMBOL orgate 608 304 R0
SYMATTR InstName X5
SYMBOL Digital\\xorgate 64 48 R0
SYMATTR InstName X1
SYMBOL Digital\\xorgate 368 48 R0
SYMATTR InstName X2
SYMBOL Digital\\andgate 496 416 R0
SYMATTR InstName X4
SYMBOL Digital\\andgate 496 256 R0
SYMATTR InstName X3
TEXT -344 472 Left 2 !.include engr2420.sub
TEXT -344 504 Left 2 !.tran 20u
