Version 4
SHEET 1 1040 680
FLAG -224 -384 A
FLAG -128 -384 B
FLAG -32 -384 C
FLAG 896 144 S0
FLAG 704 144 S1
FLAG 512 144 S2
FLAG 320 144 S3
FLAG 224 16 Cout
FLAG 288 -112 A3
FLAG 352 -112 B3
FLAG 480 -112 A2
FLAG 544 -112 B2
FLAG 672 -112 A1
FLAG 736 -112 B1
FLAG 864 -112 A0
FLAG 928 -112 B0
FLAG 992 16 C0
FLAG 800 16 C1
FLAG 608 16 C2
FLAG 416 16 C3
SYMBOL 1bit-Adder 896 16 R0
SYMATTR InstName X1
SYMBOL cktsym\\vsource -320 -320 R0
SYMATTR Value 5
SYMATTR InstName Vdd
SYMBOL cktsym\\vsource -224 -320 R0
SYMATTR Value 5
SYMATTR InstName A
SYMBOL cktsym\\vsource -128 -320 R0
SYMATTR Value 5
SYMATTR InstName B
SYMBOL cktsym\\vsource -32 -320 R0
SYMATTR Value 0
SYMATTR InstName C
SYMBOL cktsym\\gnd -320 -256 R0
SYMATTR InstName U1
SYMBOL cktsym\\gnd -224 -256 R0
SYMATTR InstName U2
SYMBOL cktsym\\gnd -128 -256 R0
SYMATTR InstName U3
SYMBOL cktsym\\gnd -32 -256 R0
SYMATTR InstName U4
SYMBOL cktsym\\vdd -320 -384 R0
SYMATTR InstName U5
SYMBOL 1bit-Adder 704 16 R0
SYMATTR InstName X2
SYMBOL 1bit-Adder 512 16 R0
SYMATTR InstName X3
SYMBOL 1bit-Adder 320 16 R0
SYMATTR InstName X4
TEXT -256 272 Left 2 !.tran 20u
TEXT -264 304 Left 2 !.include engr2420.sub
