Version 4
SHEET 1 880 680
WIRE 128 112 48 112
WIRE 336 128 224 128
WIRE 128 144 0 144
WIRE 336 144 336 128
FLAG 336 144 C
SYMBOL AND-gate 176 128 R0
SYMATTR InstName X1
SYMBOL vsource -64 144 R90
WINDOW 3 32 0 VTop 2
WINDOW 0 -32 0 VBottom 2
WINDOW 123 0 0 Left 0
WINDOW 39 0 0 Left 0
SYMATTR Value 5
SYMATTR InstName V1
SYMBOL vsource 48 48 R180
WINDOW 3 48 -16 Left 0
WINDOW 0 48 16 Left 0
WINDOW 123 0 0 Left 0
WINDOW 39 0 0 Left 0
SYMATTR Value 0
SYMATTR InstName V2
SYMBOL cktsym\\gnd 48 -16 R180
SYMATTR InstName U1
SYMBOL cktsym\\gnd -128 144 R90
SYMATTR InstName U2
TEXT -168 210 Left 2 !.tran 20us
TEXT 304 -88 Left 2 !.include engr2420.sub
