Version 4
SHEET 1 880 680
WIRE 128 80 -96 80
WIRE -96 112 -96 80
WIRE 96 112 32 112
WIRE 128 112 128 80
WIRE 176 112 128 112
WIRE 336 144 304 144
WIRE 96 176 96 112
WIRE 176 176 96 176
FLAG 336 144 output
SYMBOL cktsym\\vsource 32 176 R0
WINDOW 123 0 0 Left 0
WINDOW 39 0 0 Left 0
WINDOW 3 -56 114 Left 0
SYMATTR Value PULSE(0 5 20m 0 0 20m)
SYMATTR InstName V1
SYMBOL cktsym\\vsource -96 176 R0
WINDOW 123 0 0 Left 0
WINDOW 39 0 0 Left 0
WINDOW 3 -68 113 Left 0
SYMATTR Value PULSE(0 5 10m 0 0 20m)
SYMATTR InstName V2
SYMBOL cktsym\\gnd 32 240 R0
SYMATTR InstName U1
SYMBOL cktsym\\gnd -96 240 R0
SYMATTR InstName U2
SYMBOL Digital\\orgate 192 112 R0
SYMATTR InstName X1
TEXT 80 352 Left 2 !.include engr2420.sub
TEXT -112 352 Left 2 !.tran 40m
