Version 4
SHEET 1 896 720
WIRE 192 16 192 0
WIRE 656 16 192 16
WIRE 192 32 192 16
WIRE 48 96 -96 96
WIRE 128 96 48 96
WIRE 656 192 656 16
WIRE 192 208 192 160
WIRE 592 256 544 256
WIRE -48 272 -96 272
WIRE 128 272 -48 272
WIRE 656 368 656 320
WIRE 784 368 656 368
WIRE 192 384 192 336
WIRE 368 384 192 384
WIRE 544 384 544 256
WIRE 544 384 368 384
WIRE 192 416 192 384
WIRE 368 416 368 384
WIRE 656 416 656 368
WIRE -48 480 -48 272
WIRE 128 480 -48 480
WIRE 544 480 544 384
WIRE 592 480 544 480
WIRE 272 544 192 544
WIRE 368 544 272 544
WIRE 656 544 368 544
WIRE 272 560 272 544
WIRE 48 624 48 96
WIRE 432 624 432 480
WIRE 432 624 48 624
FLAG -96 96 V1
FLAG -96 272 V2
FLAG 784 368 V3
SYMBOL cktsym\\pmos3 192 96 R0
SYMATTR InstName U1
SYMBOL cktsym\\pmos3 192 272 R0
SYMATTR InstName U2
SYMBOL cktsym\\vdd 192 0 R0
SYMATTR InstName U3
SYMBOL cktsym\\nmos3 192 480 R0
SYMATTR InstName U4
SYMBOL cktsym\\nmos3 368 480 M0
SYMATTR InstName U5
SYMBOL cktsym\\nmos3 656 480 R0
SYMATTR InstName U6
SYMBOL cktsym\\pmos3 656 256 R0
SYMATTR InstName U7
SYMBOL cktsym\\gnd 272 560 R0
SYMATTR InstName U8
TEXT -128 672 Left 2 !.tran 40m
TEXT 16 704 Left 2 !.include engr2420.sub
