Version 4
SHEET 1 880 680
FLAG 272 112 Out
SYMBOL XOR 144 112 R0
SYMATTR InstName X1
SYMBOL cktsym\\vsource 0 128 R90
WINDOW 3 32 0 VTop 2
WINDOW 0 -32 0 VBottom 2
SYMATTR Value 3
SYMATTR InstName V2
SYMBOL cktsym\\gnd -64 128 R90
SYMATTR InstName U2
SYMBOL cktsym\\gnd 64 -32 R180
SYMATTR InstName U1
SYMBOL cktsym\\vsource 64 32 R180
WINDOW 3 48 -16 Left 0
WINDOW 0 48 16 Left 0
SYMATTR Value 0
SYMATTR InstName V1
TEXT -184 232 Left 2 !.tran 20u
TEXT -184 264 Left 2 !.include engr2420.sub
