Version 4
SHEET 1 888 680
WIRE 32 48 -80 48
WIRE 336 48 240 48
WIRE -80 80 -80 48
WIRE -80 80 -112 80
WIRE 240 80 240 48
WIRE 240 80 176 80
WIRE 560 80 480 80
WIRE -16 112 -112 112
WIRE 32 112 -16 112
WIRE 336 112 304 112
WIRE 304 160 304 112
WIRE 304 160 -112 160
WIRE 304 224 304 160
WIRE 368 224 304 224
WIRE 560 256 528 256
WIRE 240 288 240 80
WIRE 368 288 240 288
WIRE 560 304 560 256
WIRE 592 304 560 304
WIRE 800 336 720 336
WIRE 592 368 560 368
WIRE -16 384 -16 112
WIRE 368 384 -16 384
WIRE 560 416 560 368
WIRE 560 416 528 416
WIRE -80 448 -80 80
WIRE 368 448 -80 448
FLAG 560 80 S
FLAG 800 336 Cout
FLAG -112 80 A1
FLAG -112 112 B1
FLAG -112 160 Cin
FLAG -672 -176 A1
FLAG -432 -176 B1
FLAG -176 -176 Cin
SYMBOL orgate 608 304 R0
SYMATTR InstName X5
SYMBOL xorgate 64 48 R0
SYMATTR InstName X1
SYMBOL xorgate 368 48 R0
SYMATTR InstName X2
SYMBOL andgate 496 416 R0
SYMATTR InstName X4
SYMBOL andgate 496 256 R0
SYMATTR InstName X3
SYMBOL cktsym\\vsource -832 -112 R0
SYMATTR Value 5
SYMATTR InstName Vdd
SYMBOL cktsym\\vsource -672 -112 R0
WINDOW 123 0 0 Left 0
WINDOW 39 0 0 Left 0
SYMATTR InstName A1
SYMATTR Value PULSE(0 5 20m 0 0 20m)
SYMBOL cktsym\\vsource -432 -112 R0
WINDOW 123 0 0 Left 0
WINDOW 39 0 0 Left 0
SYMATTR InstName B1
SYMATTR Value PULSE(0 5 10m 0 0 10m 20m 0)
SYMBOL cktsym\\vsource -176 -112 R0
WINDOW 123 0 0 Left 0
WINDOW 39 0 0 Left 0
SYMATTR InstName Cin
SYMATTR Value PULSE(0 5 5m 0 0 5m 10m)
SYMBOL cktsym\\vdd -832 -176 R0
SYMATTR InstName U1
SYMBOL cktsym\\gnd -832 -48 R0
SYMATTR InstName U2
SYMBOL cktsym\\gnd -672 -48 R0
SYMATTR InstName U3
SYMBOL cktsym\\gnd -432 -48 R0
SYMATTR InstName U4
SYMBOL cktsym\\gnd -176 -48 R0
SYMATTR InstName U5
TEXT -344 472 Left 2 !.include engr2420.sub
TEXT -344 504 Left 2 !.tran 40m
