Version 4
SHEET 1 888 680
WIRE -80 80 -112 80
WIRE 0 80 -80 80
WIRE 240 96 208 96
WIRE 304 96 240 96
WIRE -16 112 -112 112
WIRE 0 112 -16 112
WIRE 592 112 512 112
WIRE 304 160 304 128
WIRE 304 160 -112 160
WIRE 304 240 304 160
WIRE 352 240 304 240
WIRE 512 256 448 256
WIRE 240 272 240 96
WIRE 352 272 240 272
WIRE 816 304 736 304
WIRE -16 336 -16 112
WIRE 352 336 -16 336
WIRE 512 352 448 352
WIRE -80 368 -80 80
WIRE 352 368 -80 368
FLAG 592 112 S
FLAG 816 304 Cout
FLAG -112 80 A1
FLAG -112 112 B1
FLAG -112 160 Cin
SYMBOL XOR 80 96 R0
SYMATTR InstName X1
SYMBOL XOR 384 112 R0
SYMATTR InstName X2
SYMBOL AND-gate 400 256 R0
SYMATTR InstName X3
SYMBOL AND-gate 400 352 R0
SYMATTR InstName X4
SYMBOL orgate 592 304 R0
SYMATTR InstName X5
TEXT -344 472 Left 2 !.include engr2420.sub
TEXT -344 504 Left 2 !.tran 20u
