Version 4
SHEET 1 1048 680
FLAG -160 -384 A
FLAG 96 -384 B
FLAG 336 -368 Cin
FLAG 896 144 S0
FLAG 704 144 S1
FLAG 512 144 S2
FLAG 320 144 S3
FLAG 224 16 Cout
FLAG 288 -112 A
FLAG 352 -112 B
FLAG 480 -112 A
FLAG 544 -112 B
FLAG 672 -112 A
FLAG 736 -112 A
FLAG 864 -112 A
FLAG 928 -112 B
FLAG 992 16 Cin
SYMBOL 1bit-Adder 896 16 R0
SYMATTR InstName X1
SYMBOL cktsym\\vsource -320 -320 R0
SYMATTR Value 5
SYMATTR InstName Vdd
SYMBOL cktsym\\vsource -160 -320 R0
WINDOW 123 0 0 Left 0
WINDOW 39 0 0 Left 0
SYMATTR Value PULSE(0 5 10m 0 0 10m 0 2)
SYMATTR InstName A
SYMBOL cktsym\\vsource 96 -320 R0
WINDOW 123 0 0 Left 0
WINDOW 39 0 0 Left 0
SYMATTR Value PULSE(0 5 10m 0 0 10m 20m)
SYMATTR InstName B
SYMBOL cktsym\\vsource 336 -304 R0
WINDOW 123 0 0 Left 0
WINDOW 39 0 0 Left 0
SYMATTR Value PULSE(0 5 5m 0 0 5m 10m)
SYMATTR InstName C
SYMBOL cktsym\\gnd -320 -256 R0
SYMATTR InstName U1
SYMBOL cktsym\\gnd -160 -256 R0
SYMATTR InstName U2
SYMBOL cktsym\\gnd 96 -256 R0
SYMATTR InstName U3
SYMBOL cktsym\\gnd 336 -240 R0
SYMATTR InstName U4
SYMBOL cktsym\\vdd -320 -384 R0
SYMATTR InstName U5
SYMBOL 1bit-Adder 704 16 R0
SYMATTR InstName X2
SYMBOL 1bit-Adder 512 16 R0
SYMATTR InstName X3
SYMBOL 1bit-Adder 320 16 R0
SYMATTR InstName X4
TEXT -256 272 Left 2 !.tran 40m
TEXT -264 304 Left 2 !.include engr2420.sub
