Version 4
SHEET 1 880 680
WIRE 112 0 80 0
WIRE 112 32 112 0
WIRE 112 32 -48 32
WIRE 192 32 192 -32
WIRE 192 32 112 32
WIRE 256 64 256 32
WIRE 112 80 112 32
WIRE 256 80 256 64
WIRE -112 144 -112 -32
WIRE -112 144 -160 144
WIRE 48 144 -112 144
WIRE 192 144 192 32
WIRE 16 272 16 -64
WIRE 16 272 -160 272
WIRE 48 272 16 272
FLAG -160 144 A
FLAG -160 272 B
FLAG 256 64 C
FLAG -496 112 A
FLAG -352 112 B
SYMBOL nmos3 112 144 R0
SYMATTR InstName U1
SYMBOL nmos3 112 272 R0
SYMATTR InstName U2
SYMBOL cktsym\\pmos3 80 -64 R0
SYMATTR InstName U3
SYMBOL cktsym\\pmos3 -48 -32 R0
SYMATTR InstName U4
SYMBOL cktsym\\pmos3 256 -32 R0
SYMATTR InstName U5
SYMBOL cktsym\\nmos3 256 144 R0
SYMATTR InstName U6
SYMBOL cktsym\\gnd 112 336 R0
SYMATTR InstName U7
SYMBOL cktsym\\gnd 256 208 R0
SYMATTR InstName U8
SYMBOL cktsym\\vsource -352 -48 R0
WINDOW 123 0 0 Left 0
WINDOW 39 0 0 Left 0
SYMATTR Value 5
SYMATTR InstName V1
SYMBOL cktsym\\vdd -352 -112 R0
SYMATTR InstName U9
SYMBOL cktsym\\gnd -352 16 R0
SYMATTR InstName U10
SYMBOL cktsym\\vdd -48 -96 R0
SYMATTR InstName U11
SYMBOL cktsym\\vdd 80 -128 R0
SYMATTR InstName U12
SYMBOL cktsym\\vdd 256 -96 R0
SYMATTR InstName U13
SYMBOL cktsym\\vsource -352 176 R0
WINDOW 123 0 0 Left 0
WINDOW 39 0 0 Left 0
SYMATTR Value 5
SYMATTR InstName B
SYMBOL cktsym\\vsource -496 176 R0
WINDOW 123 0 0 Left 0
WINDOW 39 0 0 Left 0
SYMATTR Value 0
SYMATTR InstName A
SYMBOL cktsym\\gnd -352 240 R0
SYMATTR InstName U14
SYMBOL cktsym\\gnd -496 240 R0
SYMATTR InstName U15
TEXT -530 380 Left 2 !.tran 20
TEXT -288 416 Left 2 !.include engr2420.sub
