Version 4
SHEET 1 896 684
WIRE 192 16 192 0
WIRE 272 16 192 16
WIRE 656 16 272 16
WIRE 192 32 192 16
WIRE 128 96 16 96
WIRE 656 192 656 16
WIRE -384 208 -384 176
WIRE 192 208 192 160
WIRE 592 256 544 256
WIRE 128 272 80 272
WIRE 272 272 272 16
WIRE 272 272 128 272
WIRE -384 368 -384 336
WIRE 192 368 192 336
WIRE 544 368 544 256
WIRE 544 368 192 368
WIRE 656 368 656 320
WIRE 784 368 656 368
WIRE 192 384 192 368
WIRE 368 384 192 384
WIRE 192 416 192 384
WIRE 368 416 368 384
WIRE 656 416 656 368
WIRE 16 480 16 96
WIRE 16 480 -80 480
WIRE 128 480 16 480
WIRE 480 480 432 480
WIRE 544 480 544 368
WIRE 592 480 544 480
WIRE 192 560 192 544
WIRE 368 560 368 544
WIRE 368 560 192 560
WIRE 656 560 656 544
WIRE 656 560 368 560
WIRE 80 592 80 272
WIRE 80 592 -96 592
WIRE 480 592 480 480
WIRE 480 592 80 592
WIRE 192 624 192 560
FLAG -80 480 A
FLAG -96 592 B
FLAG 784 368 OUTPUT
SYMBOL cktsym\\pmos3 192 96 R0
SYMATTR InstName U1
SYMBOL cktsym\\pmos3 192 272 R0
SYMATTR InstName U2
SYMBOL cktsym\\vdd 192 0 R0
SYMATTR InstName U3
SYMBOL cktsym\\nmos3 192 480 R0
SYMATTR InstName U4
SYMBOL cktsym\\nmos3 368 480 M0
SYMATTR InstName U5
SYMBOL cktsym\\nmos3 656 480 R0
SYMATTR InstName U6
SYMBOL cktsym\\pmos3 656 256 R0
SYMATTR InstName U7
SYMBOL cktsym\\gnd 192 624 R0
SYMATTR InstName U8
SYMBOL cktsym\\vsource -384 272 R0
WINDOW 123 0 0 Left 0
WINDOW 39 0 0 Left 0
SYMATTR Value 5
SYMATTR InstName Vdd
SYMBOL cktsym\\vdd -384 176 R0
SYMATTR InstName U9
SYMBOL cktsym\\gnd -384 368 R0
SYMATTR InstName U10
TEXT -128 668 Left 2 !.tran 20u
