Version 4
SHEET 1 880 760
WIRE 304 144 304 128
WIRE 240 208 192 208
WIRE -176 288 -608 288
WIRE 192 288 192 208
WIRE 192 288 -176 288
WIRE 304 288 304 272
WIRE 368 288 304 288
WIRE -288 304 -384 304
WIRE 304 304 304 288
WIRE -288 336 -288 304
WIRE -176 336 -176 288
WIRE -176 336 -288 336
WIRE -176 352 -176 336
WIRE -448 368 -480 368
WIRE 192 368 192 288
WIRE 240 368 192 368
WIRE -544 432 -608 432
WIRE -480 432 -480 368
WIRE -480 432 -544 432
WIRE -304 432 -384 432
WIRE -240 432 -240 416
WIRE -240 432 -304 432
WIRE -112 432 -112 416
WIRE -48 432 -112 432
WIRE -240 448 -240 432
WIRE -112 448 -112 432
WIRE -480 496 -480 432
WIRE -448 496 -480 496
WIRE -176 560 -176 512
WIRE -176 560 -384 560
WIRE 368 560 368 288
WIRE 368 560 -176 560
WIRE -544 592 -544 432
WIRE -48 592 -48 432
WIRE -48 592 -544 592
WIRE -304 672 -304 432
FLAG -608 432 B
FLAG -608 288 A
FLAG -304 672 Out
SYMBOL cktsym\\pmos3 304 208 R0
SYMATTR InstName U2
SYMBOL cktsym\\nmos3 304 368 R0
SYMATTR InstName U3
SYMBOL cktsym\\gnd 304 432 R0
SYMATTR InstName U4
SYMBOL cktsym\\pmos3 -176 416 R90
SYMATTR InstName U5
SYMBOL cktsym\\pmos3 -384 368 R0
SYMATTR InstName U6
SYMBOL cktsym\\nmos3 -176 448 R270
SYMATTR InstName U7
SYMBOL cktsym\\nmos3 -384 496 R0
SYMATTR InstName U8
SYMBOL cktsym\\resistor 304 64 R0
SYMATTR InstName R1
SYMBOL cktsym\\vdd 304 0 R0
SYMATTR InstName U1
