* C:\Users\afry\Documents\Semesters\Spring 2019\Circuits\olin-circuits-sp19\XORasc.asc
XU2 N002 A N001 pmos3
XU3 N002 A P001 nmos3
XU4 P001 gnd
XU5 Out A B pmos3
XU6 Out B A pmos3
XU7 Out N002 B nmos3
XU8 Out B N002 nmos3
R1 P002 N001 R
XU1 P002 vdd
Vdd P003 P004 5
XU9 P003 vdd
XU10 P004 gnd
V§A A P005 V
V§B B P006 V
XU11 P005 gnd
XU12 P006 gnd
.tran 20u
.include engr2420.sub
.backanno
.end
